/*--------------------------------*- C++ -*----------------------------------*\
| =========                 |                                                 |
| \\      /  F ield         | OpenFOAM: The Open Source CFD Toolbox           |
|  \\    /   O peration     | Version:  3.0.1                                 |
|   \\  /    A nd           | Web:      www.OpenFOAM.org                      |
|    \\/     M anipulation  |                                                 |
\*---------------------------------------------------------------------------*/
FoamFile
{
    version     2.0;
    format      ascii;
    class       dictionary;
    object      controlDict;
}
// * * * * * * * * * * * * * * * * * * * * * * * * * * * * * * * * * * * * * //
application     		pimpleFoam;

startFrom       		startTime;

startTime       		0;

stopAt          		endTime;

endTime         		2;

deltaT          		0.05;

adjustTimeStep 			yes;

maxCo 					1500;

maxDeltaT 				0.1;

writeControl			adjustableRunTime;

writeInterval   		0.1;

secondaryWriteControl 	adjustableRunTime;

secondaryWriteInterval 	0.5;

purgeWrite      		0;

writeFormat     		binary;

writePrecision  		6;

writeCompression 		uncompressed;

timeFormat      		general;

timePrecision   		6;

runTimeModifiable 		true;


functions
{
	#include "residuals"
	#include "forceCoeffs"
	#include "forces"
	
	wallShearStress
	{
		type        wallShearStress;
		libs        ("libfieldFunctionObjects.so");
		patches     (DPE_Group DPE_Wheels);
		writeControl    outputTime;
		executeControl   outputTime;
	}
	
	vorticity
	{
		type vorticity;
		functionObjectLibs ("libutilityFunctionObjects.so");
		writeControl    outputTime;
		executeControl   outputTime;
	}
}

// ************************************************************************* //
