/*--------------------------------*- C++ -*----------------------------------*\
| =========                 |                                                 |
| \\      /  F ield         | OpenFOAM: The Open Source CFD Toolbox           |
|  \\    /   O peration     | Version:  3.0.1                                 |
|   \\  /    A nd           | Web:      www.OpenFOAM.org                      |
|    \\/     M anipulation  |                                                 |
\*---------------------------------------------------------------------------*/
FoamFile
{
    version     2.0;
    format      ascii;
    class       dictionary;
    object      fvSolution;
}
// * * * * * * * * * * * * * * * * * * * * * * * * * * * * * * * * * * * * * //
solvers
{
    p
    {
        solver           GAMG;
        tolerance        1e-6;
        relTol           0.01;
        smoother         GaussSeidel;
        nPreSweeps       1;
        nPostSweeps      1;
        cacheAgglomeration on;
        agglomerator     faceAreaPair;
        nCellsInCoarsestLevel 10;
        mergeLevels      1;
    }

    Phi
    {
        $p;
    }

    U
    {
        solver           smoothSolver;
        smoother         symGaussSeidel;
        tolerance        1e-6;
        relTol           0.01;
        nSweeps          1;
    }

    k
    {
        solver           smoothSolver;
        smoother         symGaussSeidel;
        tolerance        1e-7;
        relTol           0.01;
        nSweeps          1;
    }

    omega
    {
        solver           smoothSolver;
        smoother         symGaussSeidel;
        tolerance        1e-7;
        relTol           0.01;
        nSweeps          1;
    }

    pFinal
    {
        $p;
    }

    "(rho|U|e|k|epsilon|omega)Final"
    {
        $U;
        relTol          0;
    }
}

PIMPLE
{
    nNonOrthogonalCorrectors 6;
    nCorrectors          5;
    nOuterCorrectors    50;
 
	residualControl
	{
		U   1e-05;
		p   1e-04;
	}

    outerCorrectorResidualControl
    {
        "(U|k|epsilon)"
        {
            relTol          1e-8;
            tolerance       0.001;
        }
    }
}

relaxationFactors
{
    equations
    {
		p				0.8;
    }
	equations
      {
          U       0.8;
          UFinal  1;// Last outer loop
      }
}

cache
{
    grad(U);
}

// ************************************************************************* //
