/*--------------------------------*- C++ -*----------------------------------\
| =========                 |                                                |
| \\      /  F ield         | OpenFOAM: The Open Source CFD Toolbox          |
|  \\    /   O peration     | Version:  5.x                                  |
|   \\  /    A nd           | Web:      www.OpenFOAM.org                     |
|    \\/     M anipulation  |                                                |
\----------------------------------------------------------------------------/
FoamFile
{
    version     2.0;
    format      ascii;
    class       IOobject;
    location    "constant";
    object      fanCurve;
}

// * * * * * * * * * * * * * * * * * * * * * * * * * * * * * * * * * * * * */
(
(0 		280.176)
(0.029469388 	240.151)
(0.045387755 	200.126)
(0.074857143 	160.101)
(0.095265306 	140.088)
(0.106612245 	120.075)
(0.113387755 	100.063)
(0.12244898 	80.0503)
(0.131510204 	60.0377)
(0.1406 	40.0251)
(0.15877551 	0)
);
