/*--------------------------------*- C++ -*----------------------------------*\
| =========                 |                                                 |
| \\      /  F ield         | OpenFOAM: The Open Source CFD Toolbox           |
|  \\    /   O peration     | Version:  4.1                                   |
|   \\  /    A nd           | Web:      www.OpenFOAM.org                      |
|    \\/     M anipulation  |                                                 |
\*---------------------------------------------------------------------------*/
FoamFile
{
    version     2.0;
    format      ascii;
    class       dictionary;
    location    "constant";
    object      fvOptions;
}
// * * * * * * * * * * * * * * * * * * * * * * * * * * * * * * * * * * * * * //

Radiatori
{
    type            explicitPorositySource;
    active          yes;

	explicitPorositySourceCoeffs
    {   
       selectionMode   cellZone; 
       type            DarcyForchheimer;
       cellZone        Radiatori;

       DarcyForchheimerCoeffs
       {
           d   (44326000 0 0);
           f   (240 0 0);

           coordinateSystem
              {
                 type    cartesian;
                 origin  (0 0 0);
                 coordinateRotation
                 {
                    type    axesRotation;
                    e1      (1 0 0);    //Local porous zone frame, third versor is automatically determinated
                    e2      (0 0 1);
                 }
              }
       }
    }
}

Batterie
{
    type            explicitPorositySource;
    active          yes;

    explicitPorositySourceCoeffs
    {   
       selectionMode   cellZone; 
       type            DarcyForchheimer;
       cellZone        Batterie;

       DarcyForchheimerCoeffs
       {
           d   (2894100 0 0);
           f   (-20 0 0);

           coordinateSystem
              {
                 type    cartesian;
                 origin  (0 0 0);
                 coordinateRotation
                 {
                    type    axesRotation;
                    e1      (1 0 0);    //Local porous zone frame, third versor is automatically determinated
                    e2      (0 0 1);
                 }
              }
       }
    }
}
// ************************************************************************* //
