/*--------------------------------*- C++ -*----------------------------------*\
| =========                 |                                                 |
| \\      /  F ield         | OpenFOAM: The Open Source CFD Toolbox           |
|  \\    /   O peration     | Version:  3.0.1                                 |
|   \\  /    A nd           | Web:      www.OpenFOAM.org                      |
|    \\/     M anipulation  |                                                 |
\*---------------------------------------------------------------------------*/
FoamFile
{
    version     2.0;
    format      ascii;
    class       dictionary;
    object      blockMeshDict;
}

// * * * * * * * * * * * * * * * * * * * * * * * * * * * * * * * * * * * * * //

convertToMeters 1;

vertices
(
    (-35.0 0.0 0.0)
    (65.0 0.0 0.0)
    (65.0 50.0 0.0)
    (-35.0 50.0 0.0)
    (-35.0 0.0 50.0)
    (65.0 0.0 50.0)
    (65.0 50.0 50.0)
    (-35.0 50.0 50.0)
);

blocks
(
    hex (0 1 2 3 4 5 6 7) (100 50 50) simpleGrading (1 1 1)
);

edges
(
);

boundary
(
    side
    {
        type symmetryPlane;
        faces
        (
            (3 7 6 2)
        );
    }
    symmetry
    {
        type symmetry;
        faces
        (
            (1 5 4 0)
        );
    }
    inlet
    {
        type patch;
        faces
        (
            (0 4 7 3)
        );
    }
    outlet
    {
        type patch;
        faces
        (
            (2 6 5 1)
        );
    }
    ground
    {
        type wall;
        faces
        (
            (0 3 2 1)
        );
    }
    top
    {
        type symmetryPlane;
        faces
        (
            (4 5 6 7)
        );
    }
);

// ************************************************************************* //
