/*--------------------------------*- C++ -*----------------------------------*\
| =========                 |                                                 |
| \\      /  F ield         | OpenFOAM: The Open Source CFD Toolbox           |
|  \\    /   O peration     | Version:  3.0.1                                 |
|   \\  /    A nd           | Web:      www.OpenFOAM.org                      |
|    \\/     M anipulation  |                                                 |
\*---------------------------------------------------------------------------*/
FoamFile
{
    version     2.0;
    format      ascii;
    class       dictionary;
    object      controlDict;
}
// * * * * * * * * * * * * * * * * * * * * * * * * * * * * * * * * * * * * * //

application     simpleFoam;

startFrom       latestTime;

startTime       0;

stopAt          endTime;

endTime         1000;

deltaT          1;

writeControl    timeStep;

writeInterval   1300;

purgeWrite      0;


//- Uncomment to have regular (every 2 hours of run time) restart files
//secondaryWriteControl    cpuTime; // runtime
//secondaryWriteInterval   7200;    // seconds
//secondaryPurgeWrite      1;       // keep all but last dump


writeFormat     binary;

writePrecision  6;

writeCompression uncompressed;

timeFormat      general;

timePrecision   6;

runTimeModifiable true;

functions
{
	#include "residuals"
    #include "forceCoeffs"
    #include "forces"
	wallShearStress
	{
		type        wallShearStress;
		libs        ("libfieldFunctionObjects.so");
		patches     (DPE_Group DPE_Wheels);
		writeControl    outputTime;
		executeControl   outputTime;
	}
	vorticity
	{
		type vorticity;
		functionObjectLibs ("libutilityFunctionObjects.so");
		writeControl    outputTime;
		executeControl   outputTime;
	}
}


// ************************************************************************* //
