/*--------------------------------*- C++ -*----------------------------------*\
| =========                 |                                                 |
| \\      /  F ield         | OpenFOAM: The Open Source CFD Toolbox           |
|  \\    /   O peration     | Version:  3.0.1                                 |
|   \\  /    A nd           | Web:      www.OpenFOAM.org                      |
|    \\/     M anipulation  |                                                 |
\*---------------------------------------------------------------------------*/
FoamFile
{
    version     2.0;
    format      ascii;
    class       dictionary;
    object      fvSolution;
}
// * * * * * * * * * * * * * * * * * * * * * * * * * * * * * * * * * * * * * //
solvers
{
	p
	{
		solver PCG;
		preconditioner DIC;
		tolerance 1e-5;
		relTol 0.01;
	} 

    Phi
    {
        $p;
    }

	U
	{
		solver PBiCG;
		preconditioner DILU;
		tolerance 1e-5;
		relTol 0.01;
	} 

    k
    {
        solver           smoothSolver;
        smoother         symGaussSeidel;
        tolerance        1e-8;
        relTol           0.001;
        nSweeps          1;
    }

    omega
    {
        solver           smoothSolver;
        smoother         symGaussSeidel;
        tolerance        1e-8;
        relTol           0.001;
        nSweeps          1;
    }
}

SIMPLE
{
    nUCorrectors    3;
    nNonOrthogonalCorrectors 4;  
    pRefCell        0;
    pRefValue       0;

    residualControl
	{
        U 		1e-06;
        "p.*" 	1e-05;
        k 		1e-06;
        omega 	1e-07;
    }
	
    consistent yes;
}

potentialFlow
{
    nNonOrthogonalCorrectors 5;
}

relaxationFactors
{
    equations
    {
		p				0.3;
        U               0.7;
        k               0.5;
        omega           0.5;
    }
}

cache
{
    grad(U);
}

// ************************************************************************* //
