/*--------------------------------*- C++ -*----------------------------------*\
| =========                 |                                                 |
| \\      /  F ield         | OpenFOAM: The Open Source CFD Toolbox           |
|  \\    /   O peration     | Version:  3.0.1                                 |
|   \\  /    A nd           | Web:      www.OpenFOAM.org                      |
|    \\/     M anipulation  |                                                 |
\*---------------------------------------------------------------------------*/
FoamFile
{
    version     2.0;
    format      ascii;
    class       dictionary;
    object      turbulenceProperties;
}
// * * * * * * * * * * * * * * * * * * * * * * * * * * * * * * * * * * * * * //
simulationType RAS;

RAS
{
// Turbulence model selection
RASModel kOmegaSSTSAS;

// Do you wish to calculate turbulence?
turbulence      on;

delta cubeRootVol;

kOmegaSSTSASCoeffs
{
	// Default SST coefficients
	alphaK1     0.85;
	alphaK2     1.0;
	alphaOmega1 0.5;
	alphaOmega2 0.856;
	beta1       0.075;
	beta2       0.0828;
	betaStar    0.09;
	gamma1      5/9;
	gamma2      0.44;
	a1          0.31;
	b1          1.0;
	c1          10.0;
	F3          no;

	// Default SAS coefficients
	Cs          0.11;
	kappa       0.41;
	zeta2       3.51;
	sigmaPhi    2.0/3.0;
	C           2;

	// Delta must be specified for SAS e.g.
	delta cubeRootVol;

	cubeRootVolCoeffs
	{}
}
// Wall function coefficients
wallFunctionCoeffs
{
    // kappa
    kappa           kappa [0 0 0 0 0 0 0] 0.4187;
    // E
    E               E [0 0 0 0 0 0 0] 9;
}
}
// ************************************************************************* //
